LTspice 24.1.10 for Windows
Circuit: C:\Users\olive\OneDrive\文档\GitHub\ELEC2320\Lab 1\Task 1.net
Start Time: Sun Feb 15 14:43:14 2026
solver = Normal
Maximum thread count: 12
tnom = 27
temp = 27
method = trap
Direct Newton iteration for .op point succeeded.
Total elapsed time: 0.538 seconds.

Files loaded:
C:\Users\olive\OneDrive\文档\GitHub\ELEC2320\Lab 1\Task 1.net
C:\Users\olive\AppData\Local\LTspice\lib\sub\UniversalOpAmp1.lib

