LTspice 24.1.10 for Windows
Circuit: C:\Users\olive\OneDrive\文档\GitHub\ELEC2320\Quiz 2\Att 3\Q1 at3.net
Start Time: Sun Mar  8 22:22:36 2026
solver = Normal
Maximum thread count: 12
tnom = 27
temp = 27
method = trap
Direct Newton iteration for .op point succeeded.
Total elapsed time: 0.176 seconds.

Files loaded:
C:\Users\olive\OneDrive\文档\GitHub\ELEC2320\Quiz 2\Att 3\Q1 at3.net
C:\Users\olive\AppData\Local\LTspice\lib\sub\UniversalOpAmp1.lib

