LTspice 24.1.10 for Windows
Circuit: C:\Users\olive\OneDrive\文档\GitHub\ELEC2320\Quiz 2\Att 3\Q4 at3.net
Start Time: Sun Mar  8 22:26:04 2026
solver = Normal
Maximum thread count: 12
tnom = 27
temp = 27
method = trap
.OP point found by inspection.
Total elapsed time: 0.141 seconds.

Files loaded:
C:\Users\olive\OneDrive\文档\GitHub\ELEC2320\Quiz 2\Att 3\Q4 at3.net

