LTspice 24.1.10 for Windows
Circuit: C:\Users\olive\OneDrive\文档\GitHub\ELEC2320\Quiz 1\Att 3\Q5 att 3.net
Start Time: Sun Feb 22 19:04:02 2026
solver = Normal
Maximum thread count: 12
tnom = 27
temp = 27
method = trap
Direct Newton iteration for .op point succeeded.
Total elapsed time: 4.512 seconds.

Files loaded:
C:\Users\olive\OneDrive\文档\GitHub\ELEC2320\Quiz 1\Att 3\Q5 att 3.net

maxp: MAX(-V(n001)*I(R))=37.3469736127 FROM 1 TO 5
