LTspice 24.1.10 for Windows
Circuit: C:\Users\olive\OneDrive\文档\GitHub\ELEC2320\Quiz 1\Att 2\Q5 att 2.net
Start Time: Sun Feb 22 15:26:14 2026
solver = Normal
Maximum thread count: 12
tnom = 27
temp = 27
method = trap
Direct Newton iteration for .op point succeeded.
Total elapsed time: 4.203 seconds.

Files loaded:
C:\Users\olive\OneDrive\文档\GitHub\ELEC2320\Quiz 1\Att 2\Q5 att 2.net

maxp: MAX(-V(n001)*I(R))=25.0803578198 FROM 1 TO 5
