LTspice 24.1.10 for Windows
Circuit: C:\Users\olive\OneDrive\文档\GitHub\ELEC2320\Quiz 1\Att 1\Q3 att 1.net
Start Time: Sun Feb 22 14:35:14 2026
solver = Normal
Maximum thread count: 12
tnom = 27
temp = 27
method = trap
Direct Newton iteration for .op point succeeded.
Total elapsed time: 0.247 seconds.

Files loaded:
C:\Users\olive\OneDrive\文档\GitHub\ELEC2320\Quiz 1\Att 1\Q3 att 1.net

