LTspice 24.1.10 for Windows
Circuit: C:\Users\olive\OneDrive\文档\GitHub\ELEC2320\Quiz 1\Att 1\Q5 att 1.net
Start Time: Sun Feb 22 14:36:28 2026
solver = Normal
Maximum thread count: 12
tnom = 27
temp = 27
method = trap
Direct Newton iteration for .op point succeeded.
Total elapsed time: 3.682 seconds.

Files loaded:
C:\Users\olive\OneDrive\文档\GitHub\ELEC2320\Quiz 1\Att 1\Q5 att 1.net

pmax: MAX(-V(n001)*I(R))=115.006123311 FROM 1 TO 5
