LTspice 24.1.10 for Windows
Circuit: C:\Users\olive\OneDrive\文档\GitHub\ELEC2320\Quiz 2\Att 1\Q2 a1.net
Start Time: Sun Mar  8 18:09:48 2026
solver = Normal
Maximum thread count: 12
tnom = 27
temp = 27
method = trap
Direct Newton iteration for .op point succeeded.
.step r=0.01
.step r=10.01
.step r=20.01
.step r=30.01
.step r=40.01
.step r=50.01
.step r=60.01
.step r=70.01
.step r=80.01
.step r=90.01
.step r=100.01
.step r=110.01
.step r=120.01
.step r=130.01
.step r=140.01
.step r=150.01
.step r=160.01
.step r=170.01
.step r=180.01
.step r=190.01
.step r=200.01
.step r=210.01
.step r=220.01
.step r=230.01
.step r=240.01
.step r=250.01
.step r=260.01
.step r=270.01
.step r=280.01
.step r=290.01
.step r=300.01
.step r=310.01
.step r=320.01
.step r=330.01
.step r=340.01
.step r=350.01
.step r=360.01
.step r=370.01
.step r=380.01
.step r=390.01
.step r=400.01
.step r=410.01
.step r=420.01
.step r=430.01
.step r=440.01
.step r=450.01
.step r=460.01
.step r=470.01
.step r=480.01
.step r=490.01
.step r=500.01
.step r=510.01
.step r=520.01
.step r=530.01
.step r=540.01
.step r=550.01
.step r=560.01
.step r=570.01
.step r=580.01
.step r=590.01
.step r=600.01
.step r=610.01
.step r=620.01
.step r=630.01
.step r=640.01
.step r=650.01
.step r=660.01
.step r=670.01
.step r=680.01
.step r=690.01
.step r=700.01
.step r=710.01
.step r=720.01
.step r=730.01
.step r=740.01
.step r=750.01
.step r=760.01
.step r=770.01
.step r=780.01
.step r=790.01
.step r=800.01
.step r=810.01
.step r=820.01
.step r=830.01
.step r=840.01
.step r=850.01
.step r=860.01
.step r=870.01
.step r=880.01
.step r=890.01
.step r=900.01
.step r=910.01
.step r=920.01
.step r=930.01
.step r=940.01
.step r=950.01
.step r=960.01
.step r=970.01
.step r=980.01
.step r=990.01
.step r=1000.01
.step r=1010.01
.step r=1020.01
.step r=1030.01
.step r=1040.01
.step r=1050.01
.step r=1060.01
.step r=1070.01
.step r=1080.01
.step r=1090.01
.step r=1100.01
.step r=1110.01
.step r=1120.01
.step r=1130.01
.step r=1140.01
.step r=1150.01
.step r=1160.01
.step r=1170.01
.step r=1180.01
.step r=1190.01
.step r=1200.01
.step r=1210.01
.step r=1220.01
.step r=1230.01
.step r=1240.01
.step r=1250.01
.step r=1260.01
.step r=1270.01
.step r=1280.01
.step r=1290.01
.step r=1300.01
.step r=1310.01
.step r=1320.01
.step r=1330.01
.step r=1340.01
.step r=1350.01
.step r=1360.01
.step r=1370.01
.step r=1380.01
.step r=1390.01
.step r=1400.01
.step r=1410.01
.step r=1420.01
.step r=1430.01
.step r=1440.01
.step r=1450.01
.step r=1460.01
.step r=1470.01
.step r=1480.01
.step r=1490.01
.step r=1500.01
.step r=1510.01
.step r=1520.01
.step r=1530.01
.step r=1540.01
.step r=1550.01
.step r=1560.01
.step r=1570.01
.step r=1580.01
.step r=1590.01
.step r=1600.01
.step r=1610.01
.step r=1620.01
.step r=1630.01
.step r=1640.01
.step r=1650.01
.step r=1660.01
.step r=1670.01
.step r=1680.01
.step r=1690.01
.step r=1700.01
.step r=1710.01
.step r=1720.01
.step r=1730.01
.step r=1740.01
.step r=1750.01
.step r=1760.01
.step r=1770.01
.step r=1780.01
.step r=1790.01
.step r=1800.01
.step r=1810.01
.step r=1820.01
.step r=1830.01
.step r=1840.01
.step r=1850.01
.step r=1860.01
.step r=1870.01
.step r=1880.01
.step r=1890.01
.step r=1900.01
.step r=1910.01
.step r=1920.01
.step r=1930.01
.step r=1940.01
.step r=1950.01
.step r=1960.01
.step r=1970.01
.step r=1980.01
.step r=1990.01
.step r=2000.01
.step r=2010.01
.step r=2020.01
.step r=2030.01
.step r=2040.01
.step r=2050.01
.step r=2060.01
.step r=2070.01
.step r=2080.01
.step r=2090.01
.step r=2100.01
.step r=2110.01
.step r=2120.01
.step r=2130.01
.step r=2140.01
.step r=2150.01
.step r=2160.01
.step r=2170.01
.step r=2180.01
.step r=2190.01
.step r=2200.01
.step r=2210.01
.step r=2220.01
.step r=2230.01
.step r=2240.01
.step r=2250.01
.step r=2260.01
.step r=2270.01
.step r=2280.01
.step r=2290.01
.step r=2300.01
.step r=2310.01
.step r=2320.01
.step r=2330.01
.step r=2340.01
.step r=2350.01
.step r=2360.01
.step r=2370.01
.step r=2380.01
.step r=2390.01
.step r=2400.01
.step r=2410.01
.step r=2420.01
.step r=2430.01
.step r=2440.01
.step r=2450.01
.step r=2460.01
.step r=2470.01
.step r=2480.01
.step r=2490.01
.step r=2500.01
.step r=2510.01
.step r=2520.01
.step r=2530.01
.step r=2540.01
.step r=2550.01
.step r=2560.01
.step r=2570.01
.step r=2580.01
.step r=2590.01
.step r=2600.01
.step r=2610.01
.step r=2620.01
.step r=2630.01
.step r=2640.01
.step r=2650.01
.step r=2660.01
.step r=2670.01
.step r=2680.01
.step r=2690.01
.step r=2700.01
.step r=2710.01
.step r=2720.01
.step r=2730.01
.step r=2740.01
.step r=2750.01
.step r=2760.01
.step r=2770.01
.step r=2780.01
.step r=2790.01
.step r=2800.01
.step r=2810.01
.step r=2820.01
.step r=2830.01
.step r=2840.01
.step r=2850.01
.step r=2860.01
.step r=2870.01
.step r=2880.01
.step r=2890.01
.step r=2900.01
.step r=2910.01
.step r=2920.01
.step r=2930.01
.step r=2940.01
.step r=2950.01
.step r=2960.01
.step r=2970.01
.step r=2980.01
.step r=2990.01
.step r=3000.01
.step r=3010.01
.step r=3020.01
.step r=3030.01
.step r=3040.01
.step r=3050.01
.step r=3060.01
.step r=3070.01
.step r=3080.01
.step r=3090.01
.step r=3100.01
.step r=3110.01
.step r=3120.01
.step r=3130.01
.step r=3140.01
.step r=3150.01
.step r=3160.01
.step r=3170.01
.step r=3180.01
.step r=3190.01
.step r=3200.01
.step r=3210.01
.step r=3220.01
.step r=3230.01
.step r=3240.01
.step r=3250.01
.step r=3260.01
.step r=3270.01
.step r=3280.01
.step r=3290.01
.step r=3300.01
.step r=3310.01
.step r=3320.01
.step r=3330.01
.step r=3340.01
.step r=3350.01
.step r=3360.01
.step r=3370.01
.step r=3380.01
.step r=3390.01
.step r=3400.01
.step r=3410.01
.step r=3420.01
.step r=3430.01
.step r=3440.01
.step r=3450.01
.step r=3460.01
.step r=3470.01
.step r=3480.01
.step r=3490.01
.step r=3500.01
.step r=3510.01
.step r=3520.01
.step r=3530.01
.step r=3540.01
.step r=3550.01
.step r=3560.01
.step r=3570.01
.step r=3580.01
