LTspice 24.1.10 for Windows
Circuit: C:\Users\olive\OneDrive\文档\GitHub\ELEC2320\Lab 2\task1.net
Start Time: Sun Mar 15 01:54:22 2026
solver = Normal
Maximum thread count: 12
tnom = 27
temp = 27
method = trap
Direct Newton iteration for .op point succeeded.
Total elapsed time: 0.257 seconds.

Files loaded:
C:\Users\olive\OneDrive\文档\GitHub\ELEC2320\Lab 2\task1.net
C:\Users\olive\OneDrive\文档\GitHub\ELEC2320\Lab 2\LM324.txt

